#======================================================================

# CRYSTAL DATA

#----------------------------------------------------------------------

data_VESTA_phase_1


_chemical_name_common                  'NaLiMnO-3ceng                         '
_cell_length_a                         10.03343
_cell_length_b                         7.66608
_cell_length_c                         16.50230
_cell_angle_alpha                      82.68007
_cell_angle_beta                       81.66278
_cell_angle_gamma                      70.93197
_space_group_name_H-M_alt              'P 1'
_space_group_IT_number                 1

loop_
_space_group_symop_operation_xyz
   'x, y, z'

loop_
   _atom_site_label
   _atom_site_occupancy
   _atom_site_fract_x
   _atom_site_fract_y
   _atom_site_fract_z
   _atom_site_adp_type
   _atom_site_B_iso_or_equiv
   _atom_site_type_symbol
   Na1        1.0     0.039150      0.019146      0.839532     Biso  1.000000 Na
   Na2        1.0     0.510525      0.029918      0.839449     Biso  1.000000 Na
    K3        1.0     0.793621      0.647061      0.827265     Biso  1.000000 K 
    K4        1.0     0.321756      0.635797      0.827467     Biso  1.000000 K 
   Rb5        1.0     0.116465      0.409012      0.836291     Biso  1.000000 Rb
   Rb6        1.0     0.715260      0.257287      0.831017     Biso  1.000000 Rb
   Na7        1.0     0.872874      0.687835      0.506596     Biso  1.000000 Na
   Na8        1.0     0.342989      0.692425      0.504890     Biso  1.000000 Na
    K9        1.0     0.625025      0.313248      0.494029     Biso  1.000000 K 
    K10       1.0     0.154904      0.305016      0.494464     Biso  1.000000 K 
   Rb11       1.0     0.950722      0.076598      0.501613     Biso  1.000000 Rb
   Rb12       1.0     0.548691      0.919814      0.498196     Biso  1.000000 Rb
   Na13       1.0     0.676865      0.362736      0.172068     Biso  1.000000 Na
   Na14       1.0     0.205816      0.353429      0.172646     Biso  1.000000 Na
    K15       1.0     0.959283      0.977922      0.159847     Biso  1.000000 K 
    K16       1.0     0.488092      0.972789      0.161292     Biso  1.000000 K 
   Rb17       1.0     0.283083      0.745386      0.168099     Biso  1.000000 Rb
   Rb18       1.0     0.881708      0.589741      0.164425     Biso  1.000000 Rb
   Mn1        1.0     0.299011      0.804761     -0.002897     Biso  1.000000 Mn
   Mn2        1.0     0.798236      0.807665     -0.002789     Biso  1.000000 Mn
   Mn3        1.0     0.201268      0.191243      0.002909     Biso  1.000000 Mn
   Mn4        1.0     0.700761      0.194279      0.002356     Biso  1.000000 Mn
   Mn5        1.0     0.402657      0.391902      0.000463     Biso  1.000000 Mn
   Mn6        1.0     0.900964      0.393125      0.001113     Biso  1.000000 Mn
   Mn7        1.0     0.235022      0.059499      0.667809     Biso  1.000000 Mn
   Mn8        1.0     0.733320      0.061201      0.667733     Biso  1.000000 Mn
   Mn9        1.0     0.130939      0.472601      0.664714     Biso  1.000000 Mn
   Mn10       1.0     0.630703      0.475431      0.664466     Biso  1.000000 Mn
   Mn11       1.0     0.033680      0.859274      0.669581     Biso  1.000000 Mn
   Mn12       1.0     0.532990      0.862011      0.669894     Biso  1.000000 Mn
   Mn13       1.0     0.964957      0.139713      0.328378     Biso  1.000000 Mn
   Mn14       1.0     0.463851      0.139806      0.332561     Biso  1.000000 Mn
   Mn15       1.0     0.068047      0.725841      0.333855     Biso  1.000000 Mn
   Mn16       1.0     0.568060      0.726307      0.333136     Biso  1.000000 Mn
   Mn17       1.0     0.098680      0.605560     -0.001040     Biso  1.000000 Mn
   Mn18       1.0     0.597019      0.607184     -0.001102     Biso  1.000000 Mn
   Mn19       1.0     0.367590      0.526891      0.333029     Biso  1.000000 Mn
   Mn20       1.0     0.866758      0.525956      0.337170     Biso  1.000000 Mn
   Mn21       1.0     0.930694      0.273699      0.666218     Biso  1.000000 Mn
   Mn22       1.0     0.428975      0.275069      0.666668     Biso  1.000000 Mn
   Mn23       1.0     0.263850      0.939890      0.332488     Biso  1.000000 Mn
   Mn24       1.0     0.763537      0.940239      0.331870     Biso  1.000000 Mn
   O1         1.0     0.045388      0.222141      0.939736     Biso  1.000000 O
   O2         1.0     0.547085      0.223124      0.937690     Biso  1.000000 O
   O3         1.0     0.168315      0.981107      0.065554     Biso  1.000000 O
   O4         1.0     0.669909      0.985335      0.063455     Biso  1.000000 O
   O5         1.0     0.329298      0.014250      0.936360     Biso  1.000000 O
   O6         1.0     0.831478      0.017713      0.934392     Biso  1.000000 O
   O7         1.0     0.452642      0.775865      0.061540     Biso  1.000000 O
   O8         1.0     0.954195      0.776193      0.060517     Biso  1.000000 O
   O9         1.0     0.052307      0.390317      0.063971     Biso  1.000000 O
   O10        1.0     0.553440      0.388439      0.061399     Biso  1.000000 O
   O11        1.0     0.247237      0.408892      0.938876     Biso  1.000000 O
   O12        1.0     0.748466      0.410993      0.937568     Biso  1.000000 O
   O13        1.0     0.347751      0.199756      0.064670     Biso  1.000000 O
   O14        1.0     0.843869      0.204998      0.065863     Biso  1.000000 O
   O15        1.0     0.155870      0.793494      0.933925     Biso  1.000000 O
   O16        1.0     0.652056      0.799564      0.935274     Biso  1.000000 O
   O17        1.0     0.251849      0.587811      0.061840     Biso  1.000000 O
   O18        1.0     0.751977      0.589904      0.060998     Biso  1.000000 O
   O19        1.0     0.446197      0.611046      0.937651     Biso  1.000000 O
   O20        1.0     0.947200      0.608456      0.936327     Biso  1.000000 O
   O21        1.0     0.079281      0.077325      0.605936     Biso  1.000000 O
   O22        1.0     0.579379      0.079129      0.605116     Biso  1.000000 O
   O23        1.0     0.884554      0.058402      0.730671     Biso  1.000000 O
   O24        1.0     0.385336      0.056383      0.729340     Biso  1.000000 O
   O25        1.0     0.180659      0.866386      0.731206     Biso  1.000000 O
   O26        1.0     0.676769      0.872678      0.732463     Biso  1.000000 O
   O27        1.0     0.987525      0.462146      0.601641     Biso  1.000000 O
   O28        1.0     0.483934      0.467527      0.602743     Biso  1.000000 O
   O29        1.0     0.278470      0.278778      0.605352     Biso  1.000000 O
   O30        1.0     0.779250      0.277334      0.603301     Biso  1.000000 O
   O31        1.0     0.083762      0.255497      0.729505     Biso  1.000000 O
   O32        1.0     0.584542      0.257572      0.728377     Biso  1.000000 O
   O33        1.0     0.878421      0.890585      0.605937     Biso  1.000000 O
   O34        1.0     0.379725      0.890001      0.605461     Biso  1.000000 O
   O35        1.0     0.161274      0.681612      0.603253     Biso  1.000000 O
   O36        1.0     0.664380      0.685742      0.602085     Biso  1.000000 O
   O37        1.0     0.000582      0.649475      0.732598     Biso  1.000000 O
   O38        1.0     0.503301      0.652340      0.730854     Biso  1.000000 O
   O39        1.0     0.284092      0.443810      0.729381     Biso  1.000000 O
   O40        1.0     0.786059      0.444072      0.727974     Biso  1.000000 O
   O41        1.0     0.118156      0.110804      0.393352     Biso  1.000000 O
   O42        1.0     0.619985      0.108489      0.395745     Biso  1.000000 O
   O43        1.0     0.113680      0.942724      0.268573     Biso  1.000000 O
   O44        1.0     0.611569      0.944642      0.271807     Biso  1.000000 O
   O45        1.0     0.417363      0.920245      0.395306     Biso  1.000000 O
   O46        1.0     0.918935      0.923710      0.393703     Biso  1.000000 O
   O47        1.0     0.414816      0.745608      0.270115     Biso  1.000000 O
   O48        1.0     0.913493      0.742146      0.271700     Biso  1.000000 O
   O49        1.0    -0.004426      0.351739      0.267448     Biso  1.000000 O
   O50        1.0     0.497211      0.345821      0.269182     Biso  1.000000 O
   O51        1.0     0.013683      0.533889      0.398216     Biso  1.000000 O
   O52        1.0     0.510850      0.537133      0.397006     Biso  1.000000 O
   O53        1.0     0.320835      0.129207      0.268702     Biso  1.000000 O
   O54        1.0     0.817117      0.132497      0.267623     Biso  1.000000 O
   O55        1.0     0.333886      0.321443      0.396345     Biso  1.000000 O
   O56        1.0     0.835501      0.313411      0.397778     Biso  1.000000 O
   O57        1.0     0.210914      0.557800      0.270009     Biso  1.000000 O
   O58        1.0     0.713979      0.555939      0.272115     Biso  1.000000 O
   O59        1.0     0.219998      0.721865      0.393799     Biso  1.000000 O
   O60        1.0     0.718672      0.723049      0.397116     Biso  1.000000 O
   Li1        1.0     0.499830     -0.000544      0.000141     Biso  1.000000 Li
   Li2        1.0    -0.000067     -0.000643     -0.000145     Biso  1.000000 Li
   Li3        1.0     0.332103      0.667265      0.666682     Biso  1.000000 Li
   Li4        1.0     0.832019      0.667372      0.667064     Biso  1.000000 Li
   Li5        1.0     0.165576      0.333614      0.333030     Biso  1.000000 Li
   Li6        1.0     0.665995      0.332474      0.333117     Biso  1.000000 Li
